2
R0100 1 0 1
R0200 2 0 1
R0201 2 1 1
I0200 2 0 DC 1
V0100 1 0 DC 5
.TRAN 10 1
