3
R0100 1 0 1
R0200 2 0 1
R0301 3 1 1
C0100 1 0 1
C0300 3 0 1
C0203 2 3 1
I0100 1 0 SIN 0 10 1 0 0 0 0
.TRAN 10 0.1
