1
R0100 1 0 1
C0100 1 0 1
I0100 1 0 SIN 0 10 1 0 0 0 0
.TRAN 10 0.1
