2
R0102 1 2 1
C0100 1 0 1
V0200 2 0 SIN 0 10 1 0 0 0 0
.TRAN 10 0.1
