3
R0102 1 2 1
L0301 3 1 1
C0300 3 0 1
V0200 2 0 SIN 5 10 1 0 0 0 0
.TRAN 10 0.1
