2
R0102 1 2 1
C0100 1 0 1
V0200 2 0 DC 10
.TRAN 10 0.1
