3
R0102 1 2 1
L0100 1 0 1
L0300 3 0 1
C0300 3 0 1
K0100 L0100 L0300 0.9
V0200 2 0 SIN 0 10 1 0 0 0 0
.TRAN 10 0.1
